C3H6O2
APtclcactv05102310043D 0   0.00000     0.00000
 
 11 10  0  0  0  0  0  0  0  0999 V2000
    0.4649    0.0621   -0.0019 C   0  0  0  0  0  0  0  0  0  0  0  0
   -0.6190   -0.7297   -0.0014 O   0  0  0  0  0  0  0  0  0  0  0  0
   -1.9144   -0.0740    0.0014 C   0  0  0  0  0  0  0  0  0  0  0  0
    0.3354    1.2634   -0.0000 O   0  0  0  0  0  0  0  0  0  0  0  0
    1.8432   -0.5471    0.0014 C   0  0  0  0  0  0  0  0  0  0  0  0
   -2.0052    0.5473    0.8924 H   0  0  0  0  0  0  0  0  0  0  0  0
   -2.0079    0.5498   -0.8875 H   0  0  0  0  0  0  0  0  0  0  0  0
   -2.7027   -0.8268    0.0016 H   0  0  0  0  0  0  0  0  0  0  0  0
    1.7600   -1.6340    0.0040 H   0  0  0  0  0  0  0  0  0  0  0  0
    2.3845   -0.2263   -0.8887 H   0  0  0  0  0  0  0  0  0  0  0  0
    2.3821   -0.2219    0.8913 H   0  0  0  0  0  0  0  0  0  0  0  0
  1  2  1  0  0  0  0
  2  3  1  0  0  0  0
  1  4  2  0  0  0  0
  1  5  1  0  0  0  0
  3  6  1  0  0  0  0
  3  7  1  0  0  0  0
  3  8  1  0  0  0  0
  5  9  1  0  0  0  0
  5 10  1  0  0  0  0
  5 11  1  0  0  0  0
M  END
$$$$
