C4H4O4
APtclcactv05102310233D 0   0.00000     0.00000
 
 12 11  0  0  0  0  0  0  0  0999 V2000
   -0.6667    1.2341   -0.1089 C   0  0  0  0  0  0  0  0  0  0  0  0
   -1.4438    0.0009    0.1210 C   0  0  0  0  0  0  0  0  0  0  0  0
   -2.7530   -0.0395   -0.1958 O   0  0  0  0  0  0  0  0  0  0  0  0
   -0.9035   -0.9776    0.5958 O   0  0  0  0  0  0  0  0  0  0  0  0
    0.6610    1.2386    0.0929 C   0  0  0  0  0  0  0  0  0  0  0  0
    1.4443    0.0068   -0.1230 C   0  0  0  0  0  0  0  0  0  0  0  0
    2.7414   -0.0391    0.2394 O   0  0  0  0  0  0  0  0  0  0  0  0
    0.9200   -0.9657   -0.6273 O   0  0  0  0  0  0  0  0  0  0  0  0
   -1.1651    2.1319   -0.4438 H   0  0  0  0  0  0  0  0  0  0  0  0
   -3.2201   -0.8691   -0.0270 H   0  0  0  0  0  0  0  0  0  0  0  0
    1.1555    2.1438    0.4133 H   0  0  0  0  0  0  0  0  0  0  0  0
    3.2133   -0.8676    0.0782 H   0  0  0  0  0  0  0  0  0  0  0  0
  1  2  1  0  0  0  0
  2  3  1  0  0  0  0
  2  4  2  0  0  0  0
  1  5  2  0  0  0  0
  5  6  1  0  0  0  0
  6  7  1  0  0  0  0
  6  8  2  0  0  0  0
  1  9  1  0  0  0  0
  3 10  1  0  0  0  0
  5 11  1  0  0  0  0
  7 12  1  0  0  0  0
M  END
$$$$
