C4H8
APtclcactv05102309163D 0   0.00000     0.00000
 
 12 11  0  0  0  0  0  0  0  0999 V2000
    1.9181   -0.0894   -0.0000 C   0  0  0  0  0  0  0  0  0  0  0  0
    0.5007    0.4223    0.0000 C   0  0  0  0  0  0  0  0  0  0  0  0
   -0.5007   -0.4223    0.0000 C   0  0  0  0  0  0  0  0  0  0  0  0
   -1.9181    0.0894   -0.0000 C   0  0  0  0  0  0  0  0  0  0  0  0
    2.0854   -0.6961    0.8900 H   0  0  0  0  0  0  0  0  0  0  0  0
    2.0854   -0.6961   -0.8900 H   0  0  0  0  0  0  0  0  0  0  0  0
    2.6088    0.7538   -0.0000 H   0  0  0  0  0  0  0  0  0  0  0  0
    0.3104    1.4854    0.0000 H   0  0  0  0  0  0  0  0  0  0  0  0
   -0.3104   -1.4854    0.0000 H   0  0  0  0  0  0  0  0  0  0  0  0
   -2.0854    0.6961   -0.8900 H   0  0  0  0  0  0  0  0  0  0  0  0
   -2.6088   -0.7538   -0.0000 H   0  0  0  0  0  0  0  0  0  0  0  0
   -2.0854    0.6961    0.8900 H   0  0  0  0  0  0  0  0  0  0  0  0
  1  2  1  0  0  0  0
  2  3  2  0  0  0  0
  3  4  1  0  0  0  0
  1  5  1  0  0  0  0
  1  6  1  0  0  0  0
  1  7  1  0  0  0  0
  2  8  1  0  0  0  0
  3  9  1  0  0  0  0
  4 10  1  0  0  0  0
  4 11  1  0  0  0  0
  4 12  1  0  0  0  0
M  END
$$$$
