C3H7NO2
APtclcactv05102310293D 0   0.00000     0.00000
 
 13 12  0  0  1  0  0  0  0  0999 V2000
    0.7236    0.1803   -0.4049 C   0  0  1  0  0  0  0  0  0  0  0  0
    0.7930    0.4187   -1.4663 H   0  0  0  0  0  0  0  0  0  0  0  0
    1.2037    1.3768    0.4190 C   0  0  0  0  0  0  0  0  0  0  0  0
    2.2394    1.6014    0.1640 H   0  0  0  0  0  0  0  0  0  0  0  0
    0.5794    2.2429    0.1996 H   0  0  0  0  0  0  0  0  0  0  0  0
    1.1344    1.1383    1.4803 H   0  0  0  0  0  0  0  0  0  0  0  0
    1.5650   -0.9871   -0.1093 N   0  0  0  0  0  0  0  0  0  0  0  0
   -0.7082   -0.1303   -0.0524 C   0  0  0  0  0  0  0  0  0  0  0  0
   -1.6616    0.7958   -0.2397 O   0  0  0  0  0  0  0  0  0  0  0  0
   -0.9981   -1.2130    0.3988 O   0  0  0  0  0  0  0  0  0  0  0  0
    1.2287   -1.8067   -0.5921 H   0  0  0  0  0  0  0  0  0  0  0  0
    2.5307   -0.8038   -0.3373 H   0  0  0  0  0  0  0  0  0  0  0  0
   -2.5654    0.5505    0.0012 H   0  0  0  0  0  0  0  0  0  0  0  0
  1  2  1  0  0  0  0
  1  3  1  0  0  0  0
  3  4  1  0  0  0  0
  3  5  1  0  0  0  0
  3  6  1  0  0  0  0
  1  7  1  0  0  0  0
  1  8  1  0  0  0  0
  8  9  1  0  0  0  0
  8 10  2  0  0  0  0
  7 11  1  0  0  0  0
  7 12  1  0  0  0  0
  9 13  1  0  0  0  0
M  END
$$$$
